<?xml version="1.0" encoding="UTF-8"?>

<!-- generated on Fri Oct  7 22:29:38 2016 by SUMO netconvert Version 0.26.0
<?xml version="1.0" encoding="UTF-8"?>

<configuration xmlns:xsi="http://www.w3.org/2001/XMLSchema-instance" xsi:noNamespaceSchemaLocation="http://sumo.dlr.de/xsd/netconvertConfiguration.xsd">

    <input>
        <sumo-net-file value="/Users/pascal/Dropbox/UNIGIS/Master/Daten/Stand161007/2_Netzwerk/mainNetwork.net.xml"/>
    </input>

    <output>
        <plain-output-prefix value="/Users/pascal/Dropbox/UniGIS/Master/Daten/Stand161007/2_Netzwerk/activityNetwork.net.xml"/>
    </output>

    <processing>
        <no-turnarounds value="true"/>
        <offset.disable-normalization value="true"/>
        <lefthand value="false"/>
        <junctions.corner-detail value="0"/>
    </processing>

</configuration>
-->

<tlLogics version="0.25" xmlns:xsi="http://www.w3.org/2001/XMLSchema-instance" xsi:noNamespaceSchemaLocation="http://sumo.dlr.de/xsd/tllogic_file.xsd">
    <tlLogic id="1012151" type="static" programID="0" offset="0">
        <phase duration="25" state="rrrrrGggGggrrrrrrGGgGgg"/>
        <phase duration="7" state="rrrrryyyyggrrrrrryyyygg"/>
        <phase duration="6" state="rrrrrrrrrGGrrrrrrrrrrGG"/>
        <phase duration="7" state="rrrrrrrrryyrrrrrrrrrryy"/>
        <phase duration="25" state="GGGggrrrrrrGggGggrrrrrr"/>
        <phase duration="7" state="yyyggrrrrrryyyyggrrrrrr"/>
        <phase duration="6" state="rrrGGrrrrrrrrrrGGrrrrrr"/>
        <phase duration="7" state="rrryyrrrrrrrrrryyrrrrrr"/>
    </tlLogic>
    <tlLogic id="1012621" type="static" programID="0" offset="0">
        <phase duration="83" state="GgGg"/>
        <phase duration="7" state="yyyy"/>
    </tlLogic>
    <tlLogic id="1019779" type="static" programID="0" offset="0">
        <phase duration="31" state="GGggGGgGggggggrrrrrrrrrrrrrr"/>
        <phase duration="4" state="yyyyyygygyygggrrrrrrrrrrrrrr"/>
        <phase duration="6" state="rrrrrrGrGrrGGGrrrrrrrrrrrrrr"/>
        <phase duration="4" state="rrrrrryryrryyyrrrrrrrrrrrrrr"/>
        <phase duration="31" state="rrrrrrrrrrrrrrGGggGGgGgggggg"/>
        <phase duration="4" state="rrrrrrrrrrrrrryyyyyygygyyggg"/>
        <phase duration="6" state="rrrrrrrrrrrrrrrrrrrrGrGrrGGG"/>
        <phase duration="4" state="rrrrrrrrrrrrrrrrrrrryryrryyy"/>
    </tlLogic>
    <tlLogic id="10668903" type="static" programID="0" offset="0">
        <phase duration="32" state="GggrrrrGGGg"/>
        <phase duration="7" state="yggrrrryyyg"/>
        <phase duration="6" state="rGGrrrrrrrG"/>
        <phase duration="7" state="ryyrrrrrrry"/>
        <phase duration="31" state="rrrGGGGrrrr"/>
        <phase duration="7" state="rrryyyyrrrr"/>
    </tlLogic>
    <tlLogic id="10668905" type="static" programID="0" offset="0">
        <phase duration="70" state="GGGgGGgg"/>
        <phase duration="7" state="yyygyygg"/>
        <phase duration="6" state="rrrGrrGG"/>
        <phase duration="7" state="rrryrryy"/>
    </tlLogic>
    <tlLogic id="1149027767" type="static" programID="0" offset="0">
        <phase duration="86" state="GGGgGGGg"/>
        <phase duration="4" state="yyyyyyyy"/>
    </tlLogic>
    <tlLogic id="1215802950" type="static" programID="0" offset="0">
        <phase duration="86" state="GgGg"/>
        <phase duration="4" state="yyyy"/>
    </tlLogic>
    <tlLogic id="132704531" type="static" programID="0" offset="0">
        <phase duration="31" state="rrrrrrGgGggrrrrrGgGgg"/>
        <phase duration="4" state="rrrrrryyyggrrrrryyygg"/>
        <phase duration="6" state="rrrrrrrrrGGrrrrrrrrGG"/>
        <phase duration="4" state="rrrrrrrrryyrrrrrrrryy"/>
        <phase duration="31" state="GGGgggrrrrrGGGggrrrrr"/>
        <phase duration="4" state="yyygggrrrrryyyggrrrrr"/>
        <phase duration="6" state="rrrGGGrrrrrrrrGGrrrrr"/>
        <phase duration="4" state="rrryyyrrrrrrrryyrrrrr"/>
    </tlLogic>
    <tlLogic id="1362939142" type="static" programID="0" offset="0">
        <phase duration="86" state="GGGgGGGg"/>
        <phase duration="4" state="yyyyyyyy"/>
    </tlLogic>
    <tlLogic id="1432874314" type="static" programID="0" offset="0">
        <phase duration="86" state="GGGGgGGGg"/>
        <phase duration="4" state="yyyyyyyyy"/>
    </tlLogic>
    <tlLogic id="14384527" type="static" programID="0" offset="0">
        <phase duration="31" state="GgGggrrrrrGGgGg"/>
        <phase duration="4" state="yyyggrrrrryyyyg"/>
        <phase duration="6" state="rrrGGrrrrrrrrrG"/>
        <phase duration="4" state="rrryyrrrrrrrrry"/>
        <phase duration="31" state="rrrrrGGgGgGrGrr"/>
        <phase duration="4" state="rrrrryyyygyryrr"/>
        <phase duration="6" state="rrrrrrrrrGrrrrr"/>
        <phase duration="4" state="rrrrrrrrryrrrrr"/>
    </tlLogic>
    <tlLogic id="14384529" type="static" programID="0" offset="0">
        <phase duration="86" state="GGgGGg"/>
        <phase duration="4" state="yyyyyy"/>
    </tlLogic>
    <tlLogic id="14384534" type="static" programID="0" offset="0">
        <phase duration="36" state="GGggGgrrrrrrGGgGgg"/>
        <phase duration="4" state="yyyyygrrrrrryyyygg"/>
        <phase duration="6" state="rrrrrGrrrrrrrrrrGG"/>
        <phase duration="4" state="rrrrryrrrrrrrrrryy"/>
        <phase duration="36" state="rrrrrrGGGGGgGrrrrr"/>
        <phase duration="4" state="rrrrrryyyyyyyrrrrr"/>
    </tlLogic>
    <tlLogic id="14842439" type="static" programID="0" offset="0">
        <phase duration="31" state="GggGGGgrrrr"/>
        <phase duration="4" state="yggyyygrrrr"/>
        <phase duration="6" state="rGGrrrGrrrr"/>
        <phase duration="4" state="ryyrrryrrrr"/>
        <phase duration="31" state="rrrrrrrGgGG"/>
        <phase duration="4" state="rrrrrrryyyy"/>
        <phase duration="10" state="rrrrrrrrrrr"/>
    </tlLogic>
    <tlLogic id="14842445" type="static" programID="0" offset="0">
        <phase duration="31" state="rrrrGggGGGg"/>
        <phase duration="4" state="rrrryggyyyg"/>
        <phase duration="6" state="rrrrrGGrrrG"/>
        <phase duration="4" state="rrrrryyrrry"/>
        <phase duration="31" state="GgGGrrrrrrr"/>
        <phase duration="4" state="yyyyrrrrrrr"/>
        <phase duration="10" state="rrrrrrrrrrr"/>
    </tlLogic>
    <tlLogic id="1547217864" type="static" programID="0" offset="0">
        <phase duration="36" state="GgGgGGggrrrr"/>
        <phase duration="4" state="yyygyyggrrrr"/>
        <phase duration="6" state="rrrGrrGGrrrr"/>
        <phase duration="4" state="rrryrryyrrrr"/>
        <phase duration="36" state="rGrrrrrrGGGg"/>
        <phase duration="4" state="ryrrrrrryyyy"/>
    </tlLogic>
    <tlLogic id="1547217887" type="static" programID="0" offset="0">
        <phase duration="25" state="rrrrrGgGggrrrrrGgGgg"/>
        <phase duration="7" state="rrrrryyyggrrrrryyygg"/>
        <phase duration="6" state="rrrrrrrrGGrrrrrrrrGG"/>
        <phase duration="7" state="rrrrrrrryyrrrrrrrryy"/>
        <phase duration="25" state="GGGggrrrrrGGGggrrrrr"/>
        <phase duration="7" state="yyyggrrrrryyyggrrrrr"/>
        <phase duration="6" state="rrrGGrrrrrrrrGGrrrrr"/>
        <phase duration="7" state="rrryyrrrrrrrryyrrrrr"/>
    </tlLogic>
    <tlLogic id="15846628" type="static" programID="0" offset="0">
        <phase duration="31" state="GgGggrrrrrGGgGg"/>
        <phase duration="4" state="yyyggrrrrryyyyg"/>
        <phase duration="6" state="rrrGGrrrrrrrrrG"/>
        <phase duration="4" state="rrryyrrrrrrrrry"/>
        <phase duration="31" state="rrrrrGGgGgGrGrr"/>
        <phase duration="4" state="rrrrryyyygyryrr"/>
        <phase duration="6" state="rrrrrrrrrGrrrrr"/>
        <phase duration="4" state="rrrrrrrrryrrrrr"/>
    </tlLogic>
    <tlLogic id="15846641" type="static" programID="0" offset="0">
        <phase duration="25" state="GgGggrrrrrrGgGggrrrrrr"/>
        <phase duration="7" state="yyyggrrrrrryyyggrrrrrr"/>
        <phase duration="6" state="rrrGGrrrrrrrrrGGrrrrrr"/>
        <phase duration="7" state="rrryyrrrrrrrrryyrrrrrr"/>
        <phase duration="25" state="rrrrrGGGgggrrrrrGGgGgg"/>
        <phase duration="7" state="rrrrryyygggrrrrryyyygg"/>
        <phase duration="6" state="rrrrrrrrGGGrrrrrrrrrGG"/>
        <phase duration="7" state="rrrrrrrryyyrrrrrrrrryy"/>
    </tlLogic>
    <tlLogic id="15846650" type="static" programID="0" offset="0">
        <phase duration="32" state="GggrrrGGg"/>
        <phase duration="7" state="yggrrryyg"/>
        <phase duration="6" state="rGGrrrrrG"/>
        <phase duration="7" state="ryyrrrrry"/>
        <phase duration="31" state="rrrGGgGrr"/>
        <phase duration="7" state="rrryyyyrr"/>
    </tlLogic>
    <tlLogic id="15846698" type="static" programID="0" offset="0">
        <phase duration="86" state="GgGg"/>
        <phase duration="4" state="yyyy"/>
    </tlLogic>
    <tlLogic id="1682172227" type="static" programID="0" offset="0">
        <phase duration="41" state="GGgGGGgrrrrr"/>
        <phase duration="4" state="yyyyyyyrrrrr"/>
        <phase duration="41" state="rrrrrrrGGGGG"/>
        <phase duration="4" state="rrrrrrryyyyy"/>
    </tlLogic>
    <tlLogic id="1739547637" type="static" programID="0" offset="0">
        <phase duration="86" state="GgGg"/>
        <phase duration="4" state="yyyy"/>
    </tlLogic>
    <tlLogic id="1826924114" type="static" programID="0" offset="0">
        <phase duration="86" state="GgGg"/>
        <phase duration="4" state="yyyy"/>
    </tlLogic>
    <tlLogic id="182753427" type="static" programID="0" offset="0">
        <phase duration="86" state="GGgGGg"/>
        <phase duration="4" state="yyyyyy"/>
    </tlLogic>
    <tlLogic id="189619819" type="static" programID="0" offset="0">
        <phase duration="31" state="GGgggrrrrrrrrrrrggGGg"/>
        <phase duration="4" state="yygggrrrrrrrrrrryyyyg"/>
        <phase duration="6" state="rrGGGrrrrrrrrrrrrrrrG"/>
        <phase duration="4" state="rryyyrrrrrrrrrrrrrrry"/>
        <phase duration="31" state="rrrrrGGGGGgGggggrrrrr"/>
        <phase duration="4" state="rrrrryyyyygyggggrrrrr"/>
        <phase duration="6" state="rrrrrrrrrrGrGGGGrrrrr"/>
        <phase duration="4" state="rrrrrrrrrryryyyyrrrrr"/>
    </tlLogic>
    <tlLogic id="189619820" type="static" programID="0" offset="0">
        <phase duration="36" state="GGggrrrrGgGg"/>
        <phase duration="4" state="yyggrrrryyyg"/>
        <phase duration="6" state="rrGGrrrrrrrG"/>
        <phase duration="4" state="rryyrrrrrrry"/>
        <phase duration="36" state="rrrrGGGgrGrr"/>
        <phase duration="4" state="rrrryyyyryrr"/>
    </tlLogic>
    <tlLogic id="1908412947" type="static" programID="0" offset="0">
        <phase duration="85" state="GGgGGg"/>
        <phase duration="5" state="yyyyyy"/>
    </tlLogic>
    <tlLogic id="1993618747" type="static" programID="0" offset="0">
        <phase duration="86" state="GG"/>
        <phase duration="4" state="yy"/>
    </tlLogic>
    <tlLogic id="2037921980" type="static" programID="0" offset="0">
        <phase duration="86" state="GG"/>
        <phase duration="4" state="yy"/>
    </tlLogic>
    <tlLogic id="2037921984" type="static" programID="0" offset="0">
        <phase duration="86" state="GG"/>
        <phase duration="4" state="yy"/>
    </tlLogic>
    <tlLogic id="2064713429" type="static" programID="0" offset="0">
        <phase duration="36" state="rrrGGgGgg"/>
        <phase duration="4" state="rrryygygg"/>
        <phase duration="6" state="rrrrrGrGG"/>
        <phase duration="4" state="rrrrryryy"/>
        <phase duration="36" state="GGgGrrrrr"/>
        <phase duration="4" state="yyyyrrrrr"/>
    </tlLogic>
    <tlLogic id="2114552" type="static" programID="0" offset="0">
        <phase duration="86" state="GGgGGg"/>
        <phase duration="4" state="yyyyyy"/>
    </tlLogic>
    <tlLogic id="21550262" type="static" programID="0" offset="0">
        <phase duration="86" state="GGgGGg"/>
        <phase duration="4" state="yyyyyy"/>
    </tlLogic>
    <tlLogic id="2209132729" type="static" programID="0" offset="0">
        <phase duration="40" state="Gr"/>
        <phase duration="5" state="yr"/>
        <phase duration="40" state="rG"/>
        <phase duration="5" state="ry"/>
    </tlLogic>
    <tlLogic id="231317722" type="static" programID="0" offset="0">
        <phase duration="86" state="GGgGGg"/>
        <phase duration="4" state="yyyyyy"/>
    </tlLogic>
    <tlLogic id="2339001774" type="static" programID="0" offset="0">
        <phase duration="86" state="GGgGGg"/>
        <phase duration="4" state="yyyyyy"/>
    </tlLogic>
    <tlLogic id="2339002838" type="static" programID="0" offset="0">
        <phase duration="86" state="GGgGGg"/>
        <phase duration="4" state="yyyyyy"/>
    </tlLogic>
    <tlLogic id="2392659127" type="static" programID="0" offset="0">
        <phase duration="86" state="GGgGGg"/>
        <phase duration="4" state="yyyyyy"/>
    </tlLogic>
    <tlLogic id="2392663305" type="static" programID="0" offset="0">
        <phase duration="86" state="GgGg"/>
        <phase duration="4" state="yyyy"/>
    </tlLogic>
    <tlLogic id="2397259086" type="static" programID="0" offset="0">
        <phase duration="86" state="GGgGGg"/>
        <phase duration="4" state="yyyyyy"/>
    </tlLogic>
    <tlLogic id="245973690" type="static" programID="0" offset="0">
        <phase duration="32" state="GGGggGggrrrr"/>
        <phase duration="7" state="yyygyyggrrrr"/>
        <phase duration="6" state="rrrGrrGGrrrr"/>
        <phase duration="7" state="rrryrryyrrrr"/>
        <phase duration="31" state="GGrrrrrrGGGg"/>
        <phase duration="7" state="yyrrrrrryyyy"/>
    </tlLogic>
    <tlLogic id="246112287" type="static" programID="0" offset="0">
        <phase duration="39" state="GGgGggrrr"/>
        <phase duration="2" state="yygyggrrr"/>
        <phase duration="6" state="rrGrGGrrr"/>
        <phase duration="2" state="rryryyrrr"/>
        <phase duration="39" state="GrrrrrGGg"/>
        <phase duration="2" state="yrrrrryyy"/>
    </tlLogic>
    <tlLogic id="246839379" type="static" programID="0" offset="0">
        <phase duration="36" state="GGggrrrrGgGg"/>
        <phase duration="4" state="yyggrrrryyyg"/>
        <phase duration="6" state="rrGGrrrrrrrG"/>
        <phase duration="4" state="rryyrrrrrrry"/>
        <phase duration="36" state="rrrrGGGgrGrr"/>
        <phase duration="4" state="rrrryyyyryrr"/>
    </tlLogic>
    <tlLogic id="246839992" type="static" programID="0" offset="0">
        <phase duration="31" state="rrrrrGgGggrrrrrGgGgg"/>
        <phase duration="4" state="rrrrryyyggrrrrryyygg"/>
        <phase duration="6" state="rrrrrrrrGGrrrrrrrrGG"/>
        <phase duration="4" state="rrrrrrrryyrrrrrrrryy"/>
        <phase duration="31" state="GGGggrrrrrGGGggrrrrr"/>
        <phase duration="4" state="yyyggrrrrryyyggrrrrr"/>
        <phase duration="6" state="rrrGGrrrrrrrrGGrrrrr"/>
        <phase duration="4" state="rrryyrrrrrrrryyrrrrr"/>
    </tlLogic>
    <tlLogic id="247292624" type="static" programID="0" offset="0">
        <phase duration="32" state="GGggrrrrGgGg"/>
        <phase duration="7" state="yyggrrrryyyg"/>
        <phase duration="6" state="rrGGrrrrrrrG"/>
        <phase duration="7" state="rryyrrrrrrry"/>
        <phase duration="31" state="rrrrGGGgrGrr"/>
        <phase duration="7" state="rrrryyyyryrr"/>
    </tlLogic>
    <tlLogic id="2488138708" type="static" programID="0" offset="0">
        <phase duration="36" state="GGggrrrrGgGg"/>
        <phase duration="4" state="yyggrrrryyyg"/>
        <phase duration="6" state="rrGGrrrrrrrG"/>
        <phase duration="4" state="rryyrrrrrrry"/>
        <phase duration="36" state="rrrrGGGgrGrr"/>
        <phase duration="4" state="rrrryyyyryrr"/>
    </tlLogic>
    <tlLogic id="250389255" type="static" programID="0" offset="0">
        <phase duration="25" state="rrrrrrGgGggrrrrrGgGgg"/>
        <phase duration="7" state="rrrrrryyyggrrrrryyygg"/>
        <phase duration="6" state="rrrrrrrrrGGrrrrrrrrGG"/>
        <phase duration="7" state="rrrrrrrrryyrrrrrrrryy"/>
        <phase duration="25" state="GGGgggrrrrrGGGggrrrrr"/>
        <phase duration="7" state="yyygggrrrrryyyggrrrrr"/>
        <phase duration="6" state="rrrGGGrrrrrrrrGGrrrrr"/>
        <phase duration="7" state="rrryyyrrrrrrrryyrrrrr"/>
    </tlLogic>
    <tlLogic id="252054165" type="static" programID="0" offset="0">
        <phase duration="25" state="GGgggrrrrrrrrrGgGGg"/>
        <phase duration="7" state="yygggrrrrrrrrryyyyg"/>
        <phase duration="6" state="rrGGGrrrrrrrrrrrrrG"/>
        <phase duration="7" state="rryyyrrrrrrrrrrrrry"/>
        <phase duration="25" state="rrrrrGGGGgGgggrrrrr"/>
        <phase duration="7" state="rrrrryyyygygggrrrrr"/>
        <phase duration="6" state="rrrrrrrrrGrGGGrrrrr"/>
        <phase duration="7" state="rrrrrrrrryryyyrrrrr"/>
    </tlLogic>
    <tlLogic id="252793425" type="static" programID="0" offset="0">
        <phase duration="86" state="GGgGGg"/>
        <phase duration="4" state="yyyyyy"/>
    </tlLogic>
    <tlLogic id="253185652" type="static" programID="0" offset="0">
        <phase duration="86" state="GGgGGg"/>
        <phase duration="4" state="yyyyyy"/>
    </tlLogic>
    <tlLogic id="254115806" type="static" programID="0" offset="0">
        <phase duration="83" state="GGgGGg"/>
        <phase duration="7" state="yyyyyy"/>
    </tlLogic>
    <tlLogic id="254115808" type="static" programID="0" offset="0">
        <phase duration="32" state="GGggrrrrGgGg"/>
        <phase duration="7" state="yyggrrrryyyg"/>
        <phase duration="6" state="rrGGrrrrrrrG"/>
        <phase duration="7" state="rryyrrrrrrry"/>
        <phase duration="31" state="rrrrGGGgrGrr"/>
        <phase duration="7" state="rrrryyyyryrr"/>
    </tlLogic>
    <tlLogic id="254115814" type="static" programID="0" offset="0">
        <phase duration="83" state="GGgGGg"/>
        <phase duration="7" state="yyyyyy"/>
    </tlLogic>
    <tlLogic id="255374268" type="static" programID="0" offset="0">
        <phase duration="86" state="GGgGGg"/>
        <phase duration="4" state="yyyyyy"/>
    </tlLogic>
    <tlLogic id="255392339" type="static" programID="0" offset="0">
        <phase duration="86" state="GGG"/>
        <phase duration="4" state="yyy"/>
    </tlLogic>
    <tlLogic id="255408359" type="static" programID="0" offset="0">
        <phase duration="76" state="GgGGGgGGGgg"/>
        <phase duration="4" state="yyyyygyyygg"/>
        <phase duration="6" state="rrrrrGrrrGG"/>
        <phase duration="4" state="rrrrryrrryy"/>
    </tlLogic>
    <tlLogic id="255408839" type="static" programID="0" offset="0">
        <phase duration="85" state="GG"/>
        <phase duration="5" state="yy"/>
    </tlLogic>
    <tlLogic id="256756113" type="static" programID="0" offset="0">
        <phase duration="25" state="rrrrrGgGggrrrrrGgGgg"/>
        <phase duration="7" state="rrrrryyyggrrrrryyygg"/>
        <phase duration="6" state="rrrrrrrrGGrrrrrrrrGG"/>
        <phase duration="7" state="rrrrrrrryyrrrrrrrryy"/>
        <phase duration="25" state="GGGggrrrrrGGGggrrrrr"/>
        <phase duration="7" state="yyyggrrrrryyyggrrrrr"/>
        <phase duration="6" state="rrrGGrrrrrrrrGGrrrrr"/>
        <phase duration="7" state="rrryyrrrrrrrryyrrrrr"/>
    </tlLogic>
    <tlLogic id="257576492" type="static" programID="0" offset="0">
        <phase duration="31" state="rrrrrrGgGggrrrrrGgGgg"/>
        <phase duration="4" state="rrrrrryyyggrrrrryyygg"/>
        <phase duration="6" state="rrrrrrrrrGGrrrrrrrrGG"/>
        <phase duration="4" state="rrrrrrrrryyrrrrrrrryy"/>
        <phase duration="31" state="GGGgggrrrrrGGGggrrrrr"/>
        <phase duration="4" state="yyygggrrrrryyyggrrrrr"/>
        <phase duration="6" state="rrrGGGrrrrrrrrGGrrrrr"/>
        <phase duration="4" state="rrryyyrrrrrrrryyrrrrr"/>
    </tlLogic>
    <tlLogic id="2609392950" type="static" programID="0" offset="0">
        <phase duration="86" state="GGG"/>
        <phase duration="4" state="yyy"/>
    </tlLogic>
    <tlLogic id="266329566" type="static" programID="0" offset="0">
        <phase duration="31" state="rrrrrrGgGggrrrrrrGgGgg"/>
        <phase duration="4" state="rrrrrryyyggrrrrrryyygg"/>
        <phase duration="6" state="rrrrrrrrrGGrrrrrrrrrGG"/>
        <phase duration="4" state="rrrrrrrrryyrrrrrrrrryy"/>
        <phase duration="31" state="GGGgggrrrrrGGGgggrrrrr"/>
        <phase duration="4" state="yyygggrrrrryyygggrrrrr"/>
        <phase duration="6" state="rrrGGGrrrrrrrrGGGrrrrr"/>
        <phase duration="4" state="rrryyyrrrrrrrryyyrrrrr"/>
    </tlLogic>
    <tlLogic id="27299790" type="static" programID="0" offset="0">
        <phase duration="36" state="GGggrrrrGgGg"/>
        <phase duration="4" state="yyggrrrryyyg"/>
        <phase duration="6" state="rrGGrrrrrrrG"/>
        <phase duration="4" state="rryyrrrrrrry"/>
        <phase duration="36" state="rrrrGGGgrGrr"/>
        <phase duration="4" state="rrrryyyyryrr"/>
    </tlLogic>
    <tlLogic id="27299810" type="static" programID="0" offset="0">
        <phase duration="18" state="rrrrrrrrrrrrGgGGggrrrrrrGgGggg"/>
        <phase duration="4" state="rrrrrrrrrrrryyyyggrrrrrryyyggg"/>
        <phase duration="6" state="rrrrrrrrrrrrrrrrGGrrrrrrrrrGGG"/>
        <phase duration="4" state="rrrrrrrrrrrrrrrryyrrrrrrrrryyy"/>
        <phase duration="20" state="rrrrrrGGGGggrrrrrrGGGgggrrrrrr"/>
        <phase duration="4" state="rrrrrryyyyggrrrrrryyygggrrrrrr"/>
        <phase duration="6" state="rrrrrrrrrrGGrrrrrrrrrGGGrrrrrr"/>
        <phase duration="4" state="rrrrrrrrrryyrrrrrrrrryyyrrrrrr"/>
        <phase duration="20" state="GGGGGgGrrrrrrrrrrrrrrrrrrrrrrr"/>
        <phase duration="4" state="yyyyyyyrrrrrrrrrrrrrrrrrrrrrrr"/>
    </tlLogic>
    <tlLogic id="27299812" type="static" programID="0" offset="0">
        <phase duration="36" state="GgGggrrrrrGgGgg"/>
        <phase duration="4" state="yyyggrrrrryyygg"/>
        <phase duration="6" state="rrrGGrrrrrrrrGG"/>
        <phase duration="4" state="rrryyrrrrrrrryy"/>
        <phase duration="36" state="rrrrrGGGGgrGrrr"/>
        <phase duration="4" state="rrrrryyyyyryrrr"/>
    </tlLogic>
    <tlLogic id="275974885" type="static" programID="0" offset="0">
        <phase duration="86" state="GGgGGg"/>
        <phase duration="4" state="yyyyyy"/>
    </tlLogic>
    <tlLogic id="279933148" type="static" programID="0" offset="0">
        <phase duration="86" state="GG"/>
        <phase duration="4" state="yy"/>
    </tlLogic>
    <tlLogic id="283789933" type="static" programID="0" offset="0">
        <phase duration="32" state="GGggrrrrGgGg"/>
        <phase duration="7" state="yyggrrrryyyg"/>
        <phase duration="6" state="rrGGrrrrrrrG"/>
        <phase duration="7" state="rryyrrrrrrry"/>
        <phase duration="31" state="rrrrGGGgrGrr"/>
        <phase duration="7" state="rrrryyyyryrr"/>
    </tlLogic>
    <tlLogic id="287504517" type="static" programID="0" offset="0">
        <phase duration="31" state="GgGggrrrrrrGgGggrrrrr"/>
        <phase duration="4" state="yyyggrrrrrryyyggrrrrr"/>
        <phase duration="6" state="rrrGGrrrrrrrrrGGrrrrr"/>
        <phase duration="4" state="rrryyrrrrrrrrryyrrrrr"/>
        <phase duration="31" state="rrrrrGGGgggrrrrrGGGgg"/>
        <phase duration="4" state="rrrrryyygggrrrrryyygg"/>
        <phase duration="6" state="rrrrrrrrGGGrrrrrrrrGG"/>
        <phase duration="4" state="rrrrrrrryyyrrrrrrrryy"/>
    </tlLogic>
    <tlLogic id="290464131" type="static" programID="0" offset="0">
        <phase duration="88" state="G"/>
        <phase duration="2" state="y"/>
    </tlLogic>
    <tlLogic id="290464787" type="static" programID="0" offset="0">
        <phase duration="86" state="GgGg"/>
        <phase duration="4" state="yyyy"/>
    </tlLogic>
    <tlLogic id="294139911" type="static" programID="0" offset="0">
        <phase duration="86" state="GGgGGg"/>
        <phase duration="4" state="yyyyyy"/>
    </tlLogic>
    <tlLogic id="296945738" type="static" programID="0" offset="0">
        <phase duration="35" state="GGggrrrrGgGg"/>
        <phase duration="5" state="yyggrrrryyyg"/>
        <phase duration="6" state="rrGGrrrrrrrG"/>
        <phase duration="5" state="rryyrrrrrrry"/>
        <phase duration="34" state="rrrrGGGgrGrr"/>
        <phase duration="5" state="rrrryyyyryrr"/>
    </tlLogic>
    <tlLogic id="296946135" type="static" programID="0" offset="0">
        <phase duration="40" state="rrrGGgGGg"/>
        <phase duration="5" state="rrryyyyyy"/>
        <phase duration="40" state="GGGrrrrrr"/>
        <phase duration="5" state="yyyrrrrrr"/>
    </tlLogic>
    <tlLogic id="297514297" type="static" programID="0" offset="0">
        <phase duration="31" state="GGgGggrrrrrGggGggrrrrrr"/>
        <phase duration="4" state="yyyyggrrrrryyyyggrrrrrr"/>
        <phase duration="6" state="rrrrGGrrrrrrrrrGGrrrrrr"/>
        <phase duration="4" state="rrrryyrrrrrrrrryyrrrrrr"/>
        <phase duration="31" state="rrrrrrGGGggrrrrrrGggGgg"/>
        <phase duration="4" state="rrrrrryyyggrrrrrryyyygg"/>
        <phase duration="6" state="rrrrrrrrrGGrrrrrrrrrrGG"/>
        <phase duration="4" state="rrrrrrrrryyrrrrrrrrrryy"/>
    </tlLogic>
    <tlLogic id="30949334" type="static" programID="0" offset="0">
        <phase duration="32" state="GGggrrrrGgGg"/>
        <phase duration="7" state="yyggrrrryyyg"/>
        <phase duration="6" state="rrGGrrrrrrrG"/>
        <phase duration="7" state="rryyrrrrrrry"/>
        <phase duration="31" state="rrrrGGGgrGrr"/>
        <phase duration="7" state="rrrryyyyryrr"/>
    </tlLogic>
    <tlLogic id="31207014" type="static" programID="0" offset="0">
        <phase duration="31" state="GGggGggrrrrrrrGGggGggrrrrrrr"/>
        <phase duration="4" state="yyyyyggrrrrrrryyyyyggrrrrrrr"/>
        <phase duration="6" state="rrrrrGGrrrrrrrrrrrrGGrrrrrrr"/>
        <phase duration="4" state="rrrrryyrrrrrrrrrrrryyrrrrrrr"/>
        <phase duration="31" state="rrrrrrrGGggGggrrrrrrrGGggGgg"/>
        <phase duration="4" state="rrrrrrryyyyyggrrrrrrryyyyygg"/>
        <phase duration="6" state="rrrrrrrrrrrrGGrrrrrrrrrrrrGG"/>
        <phase duration="4" state="rrrrrrrrrrrryyrrrrrrrrrrrryy"/>
    </tlLogic>
    <tlLogic id="31306643" type="static" programID="0" offset="0">
        <phase duration="31" state="rrrrrrGgGggrrrrrGgGgg"/>
        <phase duration="4" state="rrrrrryyyggrrrrryyygg"/>
        <phase duration="6" state="rrrrrrrrrGGrrrrrrrrGG"/>
        <phase duration="4" state="rrrrrrrrryyrrrrrrrryy"/>
        <phase duration="31" state="GGGgggrrrrrGGGggrrrrr"/>
        <phase duration="4" state="yyygggrrrrryyyggrrrrr"/>
        <phase duration="6" state="rrrGGGrrrrrrrrGGrrrrr"/>
        <phase duration="4" state="rrryyyrrrrrrrryyrrrrr"/>
    </tlLogic>
    <tlLogic id="31373847" type="static" programID="0" offset="0">
        <phase duration="25" state="rrrrGGggrrrrGGgg"/>
        <phase duration="7" state="rrrryyggrrrryygg"/>
        <phase duration="6" state="rrrrrrGGrrrrrrGG"/>
        <phase duration="7" state="rrrrrryyrrrrrryy"/>
        <phase duration="25" state="GGggrrrrGGggrrrr"/>
        <phase duration="7" state="yyggrrrryyggrrrr"/>
        <phase duration="6" state="rrGGrrrrrrGGrrrr"/>
        <phase duration="7" state="rryyrrrrrryyrrrr"/>
    </tlLogic>
    <tlLogic id="31374709" type="static" programID="0" offset="0">
        <phase duration="83" state="GGgGGg"/>
        <phase duration="7" state="yyyyyy"/>
    </tlLogic>
    <tlLogic id="31412303" type="static" programID="0" offset="0">
        <phase duration="31" state="rrrrrrrGGggGggGGggGgg"/>
        <phase duration="4" state="rrrrrrryyyyyggyyyyygg"/>
        <phase duration="6" state="rrrrrrrrrrrrGGrrrrrGG"/>
        <phase duration="4" state="rrrrrrrrrrrryyrrrrryy"/>
        <phase duration="31" state="GGggGGgGrrGrrrrrrrrrr"/>
        <phase duration="4" state="yyyyyygyrryrrrrrrrrrr"/>
        <phase duration="6" state="rrrrrrGrrrrrrrrrrrrrr"/>
        <phase duration="4" state="rrrrrryrrrrrrrrrrrrrr"/>
    </tlLogic>
    <tlLogic id="31412304" type="static" programID="0" offset="0">
        <phase duration="31" state="GGgGgrrrrrrGgGgg"/>
        <phase duration="4" state="yyyygrrrrrryyygg"/>
        <phase duration="6" state="rrrrGrrrrrrrrrGG"/>
        <phase duration="4" state="rrrryrrrrrrrrryy"/>
        <phase duration="31" state="rrrrrGGggGGrrrrr"/>
        <phase duration="4" state="rrrrryyyyyyrrrrr"/>
        <phase duration="10" state="rrrrrrrrrrrrrrrr"/>
    </tlLogic>
    <tlLogic id="31412935" type="static" programID="0" offset="0">
        <phase duration="36" state="gggrrrrGgGG"/>
        <phase duration="4" state="gggrrrryyyy"/>
        <phase duration="6" state="GGGrrrrrrrr"/>
        <phase duration="4" state="yyyrrrrrrrr"/>
        <phase duration="36" state="GrrGGGgrrrr"/>
        <phase duration="4" state="yrryyyyrrrr"/>
    </tlLogic>
    <tlLogic id="3142542496" type="static" programID="0" offset="0">
        <phase duration="31" state="rrrrrrrGGGgGGgrrrrrrrrGggGggg"/>
        <phase duration="4" state="rrrrrrryyyyyygrrrrrrrrygyyggg"/>
        <phase duration="6" state="rrrrrrrrrrrrrGrrrrrrrrrGrrGGG"/>
        <phase duration="4" state="rrrrrrrrrrrrryrrrrrrrrryrryyy"/>
        <phase duration="31" state="GGggGggrrrrrrrGGgggGggrrrrrrr"/>
        <phase duration="4" state="yyyyyggrrrrrrryyyyyyggrrrrrrr"/>
        <phase duration="6" state="rrrrrGGrrrrrrrrrrrrrGGrrrrrrr"/>
        <phase duration="4" state="rrrrryyrrrrrrrrrrrrryyrrrrrrr"/>
    </tlLogic>
    <tlLogic id="31460602" type="static" programID="0" offset="0">
        <phase duration="32" state="GGgGggrrr"/>
        <phase duration="7" state="yygyggrrr"/>
        <phase duration="6" state="rrGrGGrrr"/>
        <phase duration="7" state="rryryyrrr"/>
        <phase duration="31" state="GrrrrrGGg"/>
        <phase duration="7" state="yrrrrryyy"/>
    </tlLogic>