<?xml version="1.0" encoding="UTF-8"?>

<!-- generated on Fri Oct  7 22:29:35 2016 by SUMO netconvert Version 0.26.0
<?xml version="1.0" encoding="UTF-8"?>

<configuration xmlns:xsi="http://www.w3.org/2001/XMLSchema-instance" xsi:noNamespaceSchemaLocation="http://sumo.dlr.de/xsd/netconvertConfiguration.xsd">

    <input>
        <sumo-net-file value="/Users/pascal/Dropbox/UNIGIS/Master/Daten/Stand161007/2_Netzwerk/mainNetwork.net.xml"/>
    </input>

    <output>
        <plain-output-prefix value="/Users/pascal/Dropbox/UniGIS/Master/Daten/Stand161007/2_Netzwerk/activityNetwork.net.xml"/>
    </output>

    <processing>
        <no-turnarounds value="true"/>
        <offset.disable-normalization value="true"/>
        <lefthand value="false"/>
        <junctions.corner-detail value="0"/>
    </processing>

</configuration>
-->

<nodes version="0.25" xmlns:xsi="http://www.w3.org/2001/XMLSchema-instance" xsi:noNamespaceSchemaLocation="http://sumo.dlr.de/xsd/nodes_file.xsd">
    <location netOffset="-356139.90,-5166322.33" convBoundary="0.00,0.00,53091.56,70764.58" origBoundary="7.104117,46.642994,7.809888,47.275692" projParameter="+proj=utm +zone=32 +ellps=WGS84 +datum=WGS84 +units=m +no_defs"/>

    <node id="1000020552" x="6538.51" y="30349.14" type="priority"/>
    <node id="1000020759" x="7880.29" y="29296.97" type="priority"/>
    <node id="1000020988" x="7820.59" y="29335.64" type="priority"/>
    <node id="1000671001" x="25175.23" y="37533.36" type="priority"/>
    <node id="1000804033" x="38488.15" y="32945.87" type="priority"/>
    <node id="1002687586" x="8697.05" y="58056.03" type="priority"/>
    <node id="10029026" x="37234.77" y="15377.29" type="priority"/>
    <node id="10029043" x="37053.97" y="11170.22" type="priority"/>
    <node id="10029044" x="37031.48" y="11117.10" type="priority"/>
    <node id="10029046" x="37774.33" y="11783.39" type="priority"/>
    <node id="10029047" x="37780.14" y="11794.48" type="priority"/>
    <node id="10029048" x="37765.12" y="11786.77" type="priority"/>
    <node id="10029049" x="37770.01" y="11799.82" type="priority"/>
    <node id="10029051" x="37571.46" y="12405.23" type="priority"/>
    <node id="10029053" x="37695.54" y="12513.24" type="priority"/>
    <node id="10029058" x="37533.12" y="13118.66" type="priority"/>
    <node id="10029076" x="36135.53" y="18773.76" type="priority"/>
    <node id="10029077" x="36123.40" y="18826.38" type="priority"/>
    <node id="10029096" x="35210.46" y="19430.04" type="priority"/>
    <node id="10029098" x="34983.90" y="19523.71" type="priority"/>
    <node id="10029107" x="34836.58" y="19553.79" type="priority"/>
    <node id="10029150" x="34278.81" y="19621.58" type="priority"/>
    <node id="1003911050" x="40943.94" y="21990.22" type="priority"/>
    <node id="1004434950" x="36640.94" y="50007.14" type="priority"/>
    <node id="1004576404" x="35085.36" y="60665.26" type="priority"/>
    <node id="1005057482" x="29579.41" y="41123.87" type="priority"/>
    <node id="1007365996" x="26890.14" y="39962.97" type="priority"/>
    <node id="1007366035" x="26898.55" y="39979.55" type="priority"/>
    <node id="1007942508" x="12589.41" y="42855.60" type="priority"/>
    <node id="1007977549" x="14160.89" y="43676.39" type="priority"/>
    <node id="1007999695" x="15826.23" y="47290.74" type="priority"/>
    <node id="1008986940" x="34535.51" y="54092.66" type="priority"/>
    <node id="101014959" x="25802.89" y="33439.10" type="right_before_left"/>
    <node id="101014961" x="25952.00" y="33462.61" type="right_before_left"/>
    <node id="1010535262" x="28591.27" y="41597.10" type="priority"/>
    <node id="1010782281" x="4889.93" y="62510.05" type="priority"/>
    <node id="1010782374" x="5129.08" y="62490.62" type="priority"/>
    <node id="1011242" x="37009.30" y="11135.33" type="priority"/>
    <node id="1011247" x="37259.41" y="11245.78" type="priority"/>
    <node id="1011258" x="37475.80" y="11298.89" type="priority"/>
    <node id="1011300" x="37769.72" y="11403.73" type="priority"/>
    <node id="1011723" x="38885.71" y="11980.05" type="priority"/>
    <node id="1012151" x="38940.56" y="11628.79" type="traffic_light" tl="1012151"/>
    <node id="1012164" x="38987.64" y="12235.75" type="priority"/>
    <node id="1012167" x="39065.88" y="12357.83" type="priority"/>
    <node id="1012172" x="38980.02" y="11283.48" type="priority"/>
    <node id="1012619" x="39524.02" y="11508.69" type="priority"/>
    <node id="1012621" x="39634.11" y="11560.51" type="traffic_light" tl="1012621"/>
    <node id="1012640" x="39032.61" y="10994.37" type="priority"/>
    <node id="1012988" x="39209.74" y="12672.76" type="priority"/>
    <node id="1013008" x="39213.38" y="12693.43" type="priority"/>
    <node id="1013011" x="39023.63" y="12804.11" type="priority"/>
    <node id="1013014" x="38916.31" y="13036.79" type="traffic_light" tl="GS_1013014"/>
    <node id="1013032" x="39062.08" y="13130.91" type="priority"/>
    <node id="1013036" x="38998.88" y="13196.10" type="priority"/>
    <node id="101322796" x="25609.26" y="33343.97" type="priority"/>
    <node id="1013303" x="39312.60" y="12876.82" type="priority"/>
    <node id="1013312" x="39440.73" y="12957.93" type="priority"/>
    <node id="1013314" x="39345.54" y="13077.23" type="priority"/>
    <node id="1014305802" x="14130.82" y="12700.46" type="priority"/>
    <node id="1014305814" x="14010.00" y="12704.00" type="priority"/>
    <node id="1014305902" x="14086.51" y="12607.68" type="priority"/>
    <node id="1014350446" x="14023.16" y="7122.59" type="priority"/>
    <node id="1014350462" x="14392.36" y="8093.86" type="priority"/>
    <node id="1014350627" x="14291.52" y="7935.73" type="priority"/>
    <node id="1014350642" x="14155.16" y="8186.74" type="priority"/>
    <node id="1014386414" x="10891.68" y="20574.67" type="priority"/>
    <node id="1014386421" x="10991.19" y="20659.16" type="priority"/>
    <node id="1014386422" x="10439.54" y="20131.87" type="priority"/>
    <node id="1014386425" x="12156.14" y="21015.77" type="priority"/>
    <node id="1014386433" x="11623.80" y="20811.65" type="priority"/>
    <node id="1014386449" x="11727.39" y="20771.98" type="priority"/>
    <node id="1014386476" x="12093.84" y="20974.30" type="priority"/>
    <node id="1014386523" x="11732.10" y="20737.64" type="priority"/>
    <node id="1014386539" x="11586.83" y="20741.05" type="priority"/>
    <node id="1014386602" x="11120.72" y="20812.17" type="priority"/>
    <node id="1014386628" x="12426.38" y="21214.86" type="priority"/>
    <node id="1014386649" x="11215.15" y="20651.86" type="priority"/>
    <node id="1014386655" x="12254.02" y="22637.34" type="priority"/>
    <node id="1014386676" x="12142.22" y="20991.24" type="priority"/>
    <node id="1014386768" x="10775.16" y="20566.51" type="priority"/>
    <node id="1014386816" x="12076.07" y="21013.45" type="priority"/>
    <node id="1014386822" x="10712.71" y="20465.27" type="priority"/>
    <node id="1014386850" x="11658.12" y="21948.87" type="priority"/>
    <node id="1014386949" x="11948.64" y="20820.65" type="priority"/>
    <node id="1014386950" x="11069.23" y="20595.40" type="priority"/>
    <node id="1014386988" x="11662.19" y="20770.41" type="priority"/>
    <node id="1014387010" x="11170.57" y="20652.68" type="priority"/>
    <node id="1014423997" x="13179.71" y="21751.70" type="priority"/>
    <node id="1014424031" x="12845.33" y="21898.83" type="priority"/>
    <node id="1014424154" x="14093.10" y="20989.04" type="priority"/>
    <node id="1014424201" x="13201.44" y="22126.10" type="priority"/>
    <node id="1014424217" x="13172.08" y="22181.39" type="priority"/>
    <node id="1014424225" x="13279.10" y="22189.28" type="priority"/>
    <node id="1014424317" x="13054.74" y="21932.47" type="priority"/>
    <node id="1014424357" x="11239.78" y="19995.66" type="priority"/>
    <node id="1014424397" x="12968.34" y="21368.77" type="priority"/>
    <node id="1014424413" x="11316.48" y="19997.36" type="priority"/>
    <node id="1014424441" x="13937.07" y="21263.81" type="priority"/>
    <node id="1014424463" x="13827.07" y="19376.56" type="priority"/>
    <node id="1014424503" x="14056.79" y="21081.62" type="priority"/>
    <node id="1014424572" x="11303.12" y="20037.25" type="priority"/>
    <node id="1014424774" x="14196.50" y="20922.50" type="priority"/>
    <node id="1014424837" x="14251.08" y="20877.72" type="priority"/>
    <node id="1014424884" x="11184.42" y="20048.63" type="priority"/>
    <node id="1014424909" x="14171.19" y="20831.03" type="priority"/>
    <node id="1014424996" x="11156.09" y="20108.65" type="priority"/>
    <node id="1014425130" x="13208.21" y="22300.81" type="priority"/>
    <node id="1014425166" x="11130.36" y="19951.02" type="priority"/>
    <node id="1014425265" x="14414.37" y="19856.57" type="priority"/>
    <node id="1014425278" x="12870.24" y="21558.92" type="priority"/>
    <node id="1014425338" x="14182.52" y="20875.10" type="priority"/>
    <node id="1014425398" x="13134.23" y="22027.40" type="priority"/>
    <node id="1014425447" x="14140.25" y="20882.60" type="priority"/>
    <node id="1014425582" x="14448.35" y="20027.24" type="priority"/>
    <node id="1014425662" x="14117.14" y="20949.07" type="priority"/>
    <node id="1014445260" x="11441.70" y="17399.74" type="priority"/>
    <node id="1014445261" x="11216.57" y="17545.63" type="priority"/>
    <node id="1014445262" x="11270.64" y="17517.71" type="priority"/>
    <node id="1014445264" x="11433.89" y="17505.23" type="priority"/>
    <node id="1014445268" x="11264.74" y="17553.04" type="priority"/>
    <node id="1014445269" x="11284.18" y="17543.67" type="priority"/>
    <node id="1014445272" x="11495.27" y="17416.60" type="priority"/>
    <node id="1014465717" x="11135.51" y="17676.25" type="priority"/>
    <node id="1014465742" x="11456.12" y="17519.36" type="priority"/>
    <node id="1014465773" x="10762.75" y="16835.22" type="priority"/>
    <node id="1014465774" x="10630.19" y="16804.36" type="priority"/>
    <node id="1014465799" x="11419.06" y="17710.54" type="priority"/>
    <node id="1014465849" x="11400.81" y="17597.75" type="priority"/>
    <node id="1014465859" x="11438.77" y="17628.71" type="priority"/>
    <node id="1014465894" x="10677.43" y="16891.89" type="priority"/>
    <node id="1014465928" x="10610.56" y="16796.94" type="priority"/>
    <node id="1014465956" x="11357.57" y="17643.56" type="priority"/>
    <node id="1014465984" x="11046.80" y="17757.83" type="priority"/>
    <node id="1014466018" x="11119.81" y="16588.22" type="priority"/>
    <node id="1014466048" x="10641.52" y="16846.55" type="priority"/>
    <node id="1014536082" x="10143.59" y="10689.72" type="priority"/>
    <node id="1014536149" x="10159.63" y="10323.51" type="priority"/>
    <node id="1014536163" x="12167.03" y="10759.49" type="priority"/>
    <node id="1014536165" x="10593.86" y="10710.38" type="priority"/>
    <node id="1014536200" x="10534.83" y="11505.40" type="priority"/>
    <node id="1014536235" x="10439.28" y="11947.68" type="priority"/>
    <node id="1014536256" x="10121.89" y="10751.44" type="priority"/>
    <node id="1014536274" x="10036.96" y="10815.74" type="priority"/>
    <node id="1014536293" x="10003.06" y="10172.74" type="priority"/>
    <node id="1014536318" x="10207.89" y="10103.39" type="priority"/>
    <node id="1014536351" x="10378.50" y="10276.33" type="priority"/>
    <node id="1014536381" x="11726.10" y="10676.97" type="priority"/>
    <node id="1014536462" x="10068.90" y="10163.13" type="priority"/>
    <node id="1014536530" x="10424.18" y="11507.86" type="priority"/>
    <node id="1014536549" x="10461.59" y="12074.01" type="priority"/>
    <node id="1014536602" x="11085.91" y="10515.75" type="priority"/>
    <node id="1014536652" x="10679.42" y="11850.81" type="priority"/>
    <node id="1014536675" x="10457.09" y="11364.92" type="priority"/>
    <node id="1014661192" x="6809.50" y="11456.22" type="priority"/>
    <node id="1014661330" x="7547.40" y="11919.40" type="priority"/>
    <node id="1014661338" x="7638.16" y="11783.14" type="priority"/>
    <node id="1014661343" x="7668.61" y="11817.09" type="priority"/>
    <node id="1014661346" x="7844.52" y="11644.66" type="priority"/>
    <node id="1014661373" x="7068.54" y="12749.13" type="priority"/>
    <node id="1014661382" x="7758.69" y="11610.19" type="priority"/>
    <node id="1014661498" x="7819.51" y="11415.34" type="priority"/>
    <node id="1014661527" x="7150.41" y="12074.77" type="priority"/>
    <node id="1014661533" x="7900.63" y="11440.66" type="priority"/>
    <node id="1014661578" x="7105.86" y="12604.50" type="priority"/>
    <node id="1014661598" x="7729.33" y="11391.17" type="priority"/>
    <node id="1014661616" x="7962.25" y="11429.22" type="priority"/>
    <node id="1014661660" x="7062.13" y="12707.85" type="priority"/>
    <node id="1014661685" x="7284.22" y="12206.07" type="priority"/>
    <node id="1014661703" x="7126.15" y="12785.89" type="priority"/>
    <node id="1014661724" x="7857.03" y="11472.06" type="priority"/>
    <node id="1014661829" x="7214.86" y="12811.32" type="priority"/>
    <node id="1014661940" x="6827.72" y="12582.55" type="priority"/>
    <node id="1014682545" x="6956.03" y="13125.75" type="priority"/>
    <node id="1014682549" x="6913.54" y="13239.91" type="priority"/>
    <node id="1014682577" x="6952.11" y="13216.98" type="priority"/>
    <node id="1014682802" x="6163.52" y="14082.35" type="priority"/>
    <node id="1014682900" x="6551.36" y="14088.17" type="priority"/>
    <node id="1014682912" x="6598.70" y="14166.61" type="priority"/>
    <node id="1014682934" x="6019.15" y="14046.78" type="priority"/>
    <node id="1014682969" x="6534.01" y="14135.96" type="priority"/>
    <node id="1014923361" x="24336.11" y="37461.36" type="priority"/>
    <node id="1014936016" x="29110.77" y="41826.84" type="priority"/>
    <node id="1014936028" x="29211.97" y="41708.48" type="priority"/>
    <node id="1014941236" x="29047.56" y="42017.37" type="priority"/>
    <node id="1014941240" x="28996.18" y="42180.10" type="priority"/>
    <node id="1014941252" x="29062.21" y="41969.02" type="priority"/>
    <node id="1014981935" x="29574.39" y="41641.67" type="priority"/>
    <node id="1014982036" x="29537.05" y="41496.00" type="priority"/>
    <node id="1014982064" x="29462.91" y="41485.54" type="priority"/>
    <node id="1015029657" x="11935.24" y="10979.23" type="priority"/>
    <node id="1015029660" x="11911.25" y="11012.60" type="priority"/>
    <node id="1015045004" x="10762.71" y="11015.14" type="priority"/>
    <node id="1015045124" x="10753.32" y="11037.54" type="priority"/>
    <node id="1015164048" x="26188.09" y="39775.49" type="priority"/>
    <node id="1015310" x="38958.45" y="9689.16" type="priority"/>
    <node id="1015611927" x="17025.86" y="25137.49" type="priority"/>
    <node id="1015611975" x="15274.65" y="24974.88" type="priority"/>
    <node id="1015611984" x="15091.45" y="25090.74" type="priority"/>
    <node id="1015612012" x="16327.73" y="24950.87" type="priority"/>
    <node id="1015612018" x="14789.07" y="25286.69" type="priority"/>
    <node id="1015612032" x="13198.69" y="25681.08" type="priority"/>
    <node id="1015612077" x="15335.87" y="25264.82" type="priority"/>
    <node id="1015612078" x="13962.58" y="25697.66" type="priority"/>
    <node id="1015612084" x="15412.55" y="25288.42" type="priority"/>
    <node id="1015612097" x="15328.69" y="25010.53" type="priority"/>
    <node id="1015612102" x="15786.47" y="25104.94" type="priority"/>
    <node id="1015612116" x="15634.52" y="25375.10" type="priority"/>
    <node id="1015612147" x="15540.40" y="24996.28" type="priority"/>
    <node id="1015612157" x="15715.76" y="25037.11" type="priority"/>
    <node id="1015612158" x="15385.60" y="25325.11" type="priority"/>
    <node id="1015612165" x="15239.04" y="25209.83" type="priority"/>
    <node id="1015612180" x="13075.71" y="25300.27" type="priority"/>
    <node id="1015612181" x="15379.12" y="25096.20" type="priority"/>
    <node id="1015612209" x="15860.17" y="25011.07" type="priority"/>
    <node id="1015612244" x="13786.85" y="25687.04" type="priority"/>
    <node id="1015612250" x="14308.44" y="25460.86" type="priority"/>
    <node id="1015612257" x="15422.73" y="25371.97" type="priority"/>
    <node id="1015618023" x="13046.52" y="11884.58" type="priority"/>
    <node id="1015630630" x="13076.34" y="11443.36" type="priority"/>
    <node id="1015721733" x="25271.40" y="33701.28" type="priority"/>
    <node id="1015731766" x="13700.03" y="13291.33" type="priority"/>
    <node id="1015731774" x="13726.73" y="13198.08" type="priority"/>
    <node id="1015731794" x="13406.69" y="13116.45" type="priority"/>
    <node id="1015731799" x="13567.37" y="13306.21" type="priority"/>
    <node id="1015731806" x="12592.55" y="12630.64" type="priority"/>
    <node id="1015731807" x="13567.86" y="13196.50" type="priority"/>
    <node id="1015731826" x="13367.23" y="13053.05" type="priority"/>
    <node id="1015731844" x="13372.31" y="13138.90" type="priority"/>
    <node id="1015731855" x="13684.65" y="13281.71" type="priority"/>
    <node id="1015731868" x="13318.96" y="13070.79" type="priority"/>
    <node id="1015731877" x="13521.89" y="13166.58" type="priority"/>
    <node id="1015733533" x="25228.50" y="33647.59" type="priority"/>
    <node id="1015859353" x="13512.40" y="17278.12" type="priority"/>
    <node id="1015996320" x="12418.72" y="12118.43" type="priority"/>
    <node id="1016130280" x="19343.32" y="16996.92" type="priority"/>
    <node id="1016130334" x="18700.14" y="18713.30" type="priority"/>
    <node id="1016130402" x="20086.16" y="18834.38" type="priority"/>
    <node id="1016130407" x="18662.32" y="18609.19" type="priority"/>
    <node id="1016130439" x="19215.91" y="17588.24" type="priority"/>
    <node id="1016130535" x="18685.79" y="18618.12" type="priority"/>
    <node id="1016722521" x="26023.08" y="39691.91" type="priority"/>
    <node id="1016806" x="41594.16" y="5922.98" type="priority"/>
    <node id="1016851" x="40650.64" y="5771.70" type="priority"/>
    <node id="1016864663" x="12972.51" y="14449.95" type="priority"/>
    <node id="1016864760" x="13272.93" y="14534.05" type="priority"/>
    <node id="1016864853" x="13187.50" y="14654.28" type="priority"/>
    <node id="1016968" x="41301.72" y="4714.35" type="priority"/>
    <node id="1017475" x="39945.93" y="3882.54" type="priority"/>
    <node id="1017492" x="39272.80" y="3650.98" type="priority"/>
    <node id="1017512" x="38854.56" y="3573.10" type="priority"/>
    <node id="1017513" x="38792.94" y="3616.91" type="priority"/>
    <node id="1017705223" x="50938.85" y="34091.67" type="priority"/>
    <node id="1017731041" x="6378.80" y="15135.85" type="priority"/>
    <node id="1017731096" x="6292.50" y="15248.56" type="priority"/>
    <node id="1017731097" x="6185.83" y="15281.25" type="priority"/>
    <node id="1017750481" x="8636.62" y="15649.42" type="priority"/>
    <node id="1017750593" x="8544.17" y="15417.95" type="priority"/>
    <node id="10178558" x="35697.09" y="16953.45" type="priority"/>
    <node id="1018258821" x="3465.63" y="17357.83" type="priority"/>
    <node id="1018258839" x="3471.81" y="17339.40" type="priority"/>
    <node id="1018304086" x="5605.29" y="15492.00" type="priority"/>
    <node id="1018304126" x="5766.26" y="15729.97" type="priority"/>
    <node id="1018304158" x="5920.45" y="15828.46" type="priority"/>
    <node id="1019121911" x="14407.67" y="43023.16" type="priority"/>
    <node id="1019244" x="29624.65" y="41406.26" type="priority"/>
    <node id="1019254" x="29407.52" y="41518.03" type="priority"/>
    <node id="1019321" x="29504.86" y="42056.91" type="priority"/>
    <node id="1019332" x="29863.85" y="42177.68" type="priority"/>
    <node id="1019336" x="29895.09" y="42194.14" type="priority"/>
    <node id="1019722" x="26983.08" y="35458.40" type="traffic_light" tl="joinedS_0"/>
    <node id="1019752" x="26666.03" y="34880.84" type="priority"/>
    <node id="1019779" x="26625.54" y="34807.52" type="traffic_light" tl="1019779"/>
    <node id="1019788" x="26578.56" y="34674.52" type="priority"/>
    <node id="1019792" x="26627.39" y="34568.78" type="priority"/>
    <node id="1019810" x="26554.81" y="35090.08" type="right_before_left"/>
    <node id="1019844" x="26491.36" y="34975.14" type="right_before_left"/>
    <node id="1019854" x="26666.90" y="34996.94" type="priority"/>
    <node id="1020030951" x="12336.87" y="54440.55" type="priority"/>
    <node id="1020030990" x="12278.15" y="54080.39" type="priority"/>
    <node id="1020031010" x="12660.58" y="54135.86" type="priority"/>
    <node id="1020031016" x="13948.78" y="53715.21" type="priority"/>
    <node id="1020031068" x="13934.08" y="53770.67" type="priority"/>
    <node id="1020031071" x="12282.86" y="54158.74" type="priority"/>
    <node id="1020037" x="26432.73" y="34836.49" type="priority"/>
    <node id="1020179912" x="49676.06" y="15374.26" type="priority"/>
    <node id="1020179975" x="49774.83" y="15564.30" type="priority"/>
    <node id="1020190" x="25624.91" y="34932.36" type="priority"/>
    <node id="1020241" x="26221.05" y="35377.97" type="right_before_left"/>
    <node id="1020536" x="25582.54" y="34930.73" type="priority"/>
    <node id="1020632313" x="11606.80" y="56649.55" type="priority"/>
    <node id="1020632317" x="11667.84" y="56558.32" type="priority"/>
    <node id="1020710" x="25208.80" y="34602.94" type="priority"/>
    <node id="1021048" x="25749.57" y="34385.87" type="priority"/>
    <node id="1021074" x="25299.88" y="34521.90" type="priority"/>
    <node id="1021082" x="25348.19" y="34605.88" type="priority"/>
    <node id="1021215" x="25877.94" y="34747.58" type="priority"/>
    <node id="1021265" x="25499.69" y="34108.88" type="priority"/>
    <node id="1021628" x="26429.04" y="34175.49" type="priority"/>
    <node id="1021708" x="25456.26" y="33953.98" type="priority"/>
    <node id="1021782" x="24942.40" y="33645.24" type="priority"/>
    <node id="1021793" x="24960.11" y="34161.34" type="traffic_light" tl="joinedS_2" controlledInner="-26203324#1 26203324#1"/>
    <node id="1021794" x="24858.70" y="34519.26" type="priority"/>
    <node id="1021926" x="24947.95" y="34547.03" type="priority"/>
    <node id="1022021" x="24883.35" y="34433.26" type="priority"/>
    <node id="1022044" x="24812.65" y="34576.34" type="priority"/>
    <node id="1022048" x="24539.83" y="34880.76" type="priority"/>
    <node id="1022052562" x="11604.22" y="31738.43" type="priority"/>
    <node id="1022091" x="25597.85" y="34335.04" type="priority"/>
    <node id="1022192" x="25763.24" y="34170.14" type="unregulated"/>
    <node id="1022577515" x="7592.14" y="13887.53" type="priority"/>
    <node id="1022577742" x="7771.27" y="14017.06" type="priority"/>
    <node id="1022578075" x="6831.00" y="14160.72" type="priority"/>
    <node id="1022578128" x="6938.91" y="14029.79" type="priority"/>
    <node id="1022605646" x="7990.35" y="13366.37" type="priority"/>
    <node id="1022605679" x="8035.03" y="13426.57" type="priority"/>
    <node id="1023221598" x="12137.88" y="44757.30" type="priority"/>
    <node id="1023221647" x="12170.79" y="44718.24" type="priority"/>
    <node id="1023788616" x="31033.37" y="39139.11" type="priority"/>
    <node id="1023788627" x="31152.60" y="39203.24" type="priority"/>
    <node id="1023820842" x="28423.30" y="37673.96" type="priority"/>
    <node id="1023820904" x="28287.51" y="37644.17" type="priority"/>
    <node id="1023820918" x="28391.30" y="37617.43" type="priority"/>
    <node id="1023820921" x="28491.94" y="37608.17" type="priority"/>
    <node id="1024285550" x="17756.04" y="53373.58" type="priority"/>
    <node id="1024301313" x="18037.07" y="53802.06" type="priority"/>
    <node id="1024698225" x="27622.89" y="19401.40" type="priority"/>
    <node id="1024698250" x="27249.74" y="19684.77" type="priority"/>
    <node id="1024698254" x="27566.68" y="19380.25" type="priority"/>
    <node id="1024698257" x="27600.54" y="19445.49" type="priority"/>
    <node id="1024736490" x="25053.21" y="37284.56" type="priority"/>
    <node id="1024751943" x="25244.73" y="38772.10" type="priority"/>
    <node id="1024848744" x="28900.66" y="38002.00" type="priority"/>
    <node id="1024852907" x="16912.86" y="20050.21" type="priority"/>
    <node id="1024854353" x="28238.73" y="36925.88" type="priority"/>
    <node id="1024918369" x="27926.14" y="36827.36" type="priority"/>
    <node id="1024918400" x="27922.66" y="36975.52" type="priority"/>
    <node id="1024918402" x="27857.70" y="36962.47" type="priority"/>
    <node id="1024918407" x="27743.74" y="37051.07" type="priority"/>
    <node id="1024918415" x="28783.64" y="37363.64" type="priority"/>
    <node id="1024918427" x="27971.12" y="36950.12" type="priority"/>
    <node id="1024918433" x="28735.14" y="37378.87" type="priority"/>
    <node id="1024918435" x="27586.85" y="37393.06" type="priority"/>
    <node id="1024918444" x="28690.93" y="37409.45" type="priority"/>
    <node id="1024918449" x="28375.18" y="37691.39" type="priority"/>
    <node id="1024918451" x="28527.61" y="37469.61" type="right_before_left"/>
    <node id="1024948474" x="12929.45" y="42741.10" type="priority"/>
    <node id="1024948478" x="12595.42" y="42917.13" type="priority"/>
    <node id="1024948802" x="12738.02" y="42707.96" type="priority"/>
    <node id="1025154232" x="13072.53" y="41731.95" type="priority"/>
    <node id="1025154338" x="12592.24" y="42480.27" type="priority"/>
    <node id="1025155176" x="12346.22" y="42228.21" type="priority"/>
    <node id="1025548917" x="13599.68" y="30582.32" type="priority"/>
    <node id="1025569098" x="25231.68" y="38029.65" type="priority"/>
    <node id="1026000239" x="6833.61" y="21212.45" type="priority"/>
    <node id="1026000247" x="6827.34" y="21293.03" type="priority"/>
    <node id="1026000251" x="6822.14" y="21200.58" type="priority"/>
    <node id="1026000283" x="7128.93" y="21109.89" type="priority"/>
    <node id="1026018371" x="5454.58" y="18691.21" type="priority"/>
    <node id="1026018388" x="5254.06" y="19141.78" type="priority"/>
    <node id="1026018408" x="5412.80" y="18792.77" type="priority"/>
    <node id="1026018424" x="5178.61" y="18758.20" type="priority"/>
    <node id="1026018430" x="5378.60" y="19173.94" type="priority"/>
    <node id="1026018444" x="5497.84" y="18933.51" type="priority"/>
    <node id="1026018447" x="5570.52" y="19211.88" type="priority"/>
    <node id="1026018453" x="5138.57" y="18823.99" type="priority"/>
    <node id="1026018463" x="5529.58" y="18888.17" type="priority"/>
    <node id="1026018486" x="5290.06" y="18767.56" type="priority"/>
    <node id="1026018496" x="5017.32" y="18731.45" type="priority"/>
    <node id="1026046033" x="39755.05" y="44112.67" type="priority"/>
    <node id="1026046042" x="39764.91" y="44111.63" type="priority"/>
    <node id="1026239349" x="12346.77" y="13919.03" type="priority"/>
    <node id="1026239386" x="12417.52" y="13974.52" type="priority"/>
    <node id="1026239469" x="12417.32" y="14746.66" type="priority"/>
    <node id="1026239471" x="12182.45" y="14189.16" type="priority"/>
    <node id="1026239532" x="11687.04" y="14405.56" type="priority"/>
    <node id="1026239539" x="12343.50" y="13821.68" type="priority"/>
    <node id="1026239591" x="12878.02" y="14965.92" type="priority"/>
    <node id="1026328346" x="28778.50" y="36827.95" type="priority"/>
    <node id="1026401529" x="11732.13" y="56893.98" type="priority"/>
    <node id="1026401577" x="11517.14" y="56810.99" type="priority"/>
    <node id="1026624302" x="28621.93" y="41213.05" type="priority"/>
    <node id="1027080997" x="28222.92" y="37081.64" type="priority"/>
    <node id="1027081098" x="28189.08" y="37144.72" type="priority"/>
    <node id="1027101668" x="28392.56" y="37600.50" type="priority"/>
    <node id="1027101750" x="28378.94" y="37558.48" type="priority"/>
    <node id="1027130061" x="29771.54" y="37634.82" type="priority"/>
    <node id="1027130072" x="30623.54" y="43274.31" type="priority"/>
    <node id="1027130082" x="29668.56" y="37244.58" type="priority"/>
    <node id="1027130086" x="29864.36" y="42938.70" type="priority"/>
    <node id="1027130087" x="29909.72" y="37223.53" type="priority"/>
    <node id="1027130089" x="29692.61" y="37738.92" type="priority"/>
    <node id="1027130092" x="29994.75" y="42848.95" type="priority"/>
    <node id="1027130099" x="30456.87" y="43475.69" type="priority"/>
    <node id="1027130104" x="30278.01" y="37965.44" type="priority"/>
    <node id="1027130106" x="29658.82" y="37337.15" type="priority"/>
    <node id="1027130109" x="30241.66" y="37995.79" type="priority"/>
    <node id="1027130110" x="30193.20" y="38008.39" type="priority"/>
    <node id="1027130126" x="30303.26" y="38026.21" type="priority"/>
    <node id="1027972172" x="28658.46" y="36970.74" type="priority"/>
    <node id="1027979783" x="28028.90" y="37271.93" type="priority"/>
    <node id="1027979788" x="27978.62" y="37307.60" type="priority"/>
    <node id="1027979809" x="28683.09" y="36853.91" type="priority"/>
    <node id="1028712518" x="6107.39" y="16763.35" type="priority"/>
    <node id="1029427882" x="7876.59" y="19616.30" type="priority"/>
    <node id="1029427995" x="7015.40" y="20384.11" type="priority"/>
    <node id="1029428006" x="7825.88" y="19618.28" type="priority"/>
    <node id="1029428092" x="7926.05" y="19702.76" type="priority"/>
    <node id="1029451821" x="5646.97" y="24683.25" type="priority"/>
    <node id="1029451863" x="6572.42" y="25335.14" type="priority"/>
    <node id="1029451888" x="6203.42" y="24503.88" type="priority"/>
    <node id="1029617689" x="4233.59" y="28517.50" type="priority"/>