<types xmlns:xsi="http://www.w3.org/2001/XMLSchema-instance" xsi:noNamespaceSchemaLocation="http://sumo.dlr.de/xsd/types_file.xsd">
    <type id="highway.motorway"       numLanes="2" speed="33.33" priority="13" oneway="true"  disallow="pedestrian bicycle moped rail rail_urban rail_electric tram"/>
    <type id="highway.motorway_link"  numLanes="1" speed="22.22" priority="12" oneway="true"  disallow="pedestrian bicycle moped rail rail_urban rail_electric tram"/>
    <type id="highway.trunk"          numLanes="1" speed="27.78" priority="11" oneway="false" disallow="pedestrian bicycle rail rail_urban rail_electric tram"/>
    <type id="highway.trunk_link"     numLanes="1" speed="22.22" priority="10" oneway="false" disallow="pedestrian bicycle rail rail_urban rail_electric tram"/>
    <type id="highway.primary"        numLanes="1" speed="22.22" priority="9"  oneway="false" disallow="rail rail_urban rail_electric tram"/>
    <type id="highway.primary_link"   numLanes="1" speed="22.22" priority="8"  oneway="false" disallow="rail rail_urban rail_electric tram"/>
    <type id="highway.secondary"      numLanes="1" speed="22.22" priority="7"  oneway="false" disallow="rail rail_urban rail_electric tram"/>
    <type id="highway.secondary_link" numLanes="1" speed="22.22" priority="6"  oneway="false" disallow="rail rail_urban rail_electric tram"/>
    <type id="highway.tertiary"       numLanes="1" speed="22.22" priority="6"  oneway="false" disallow="rail rail_urban rail_electric tram"/>
    <type id="highway.tertiary_link"  numLanes="1" speed="22.22" priority="5"  oneway="false" disallow="rail rail_urban rail_electric tram"/>
    <type id="highway.unclassified"   numLanes="1" speed="13.89" priority="5"  oneway="false" disallow="rail rail_urban rail_electric tram"/>
    <type id="highway.residential"    numLanes="1" speed="13.89" priority="4"  oneway="false" disallow="rail rail_urban rail_electric tram"/>
    <type id="highway.living_street"  numLanes="1" speed="2.78"  priority="3"  oneway="false" disallow="rail rail_urban rail_electric tram"/>
    <type id="highway.service"        numLanes="1" speed="5.56"  priority="2"  oneway="false" allow="delivery pedestrian bicycle"/>
    <type id="highway.track"          numLanes="1" speed="5.56"  priority="1"  oneway="false" disallow="rail rail_urban rail_electric tram"/>
    <type id="highway.services"       numLanes="1" speed="8.33"  priority="1"  oneway="false" disallow="rail rail_urban rail_electric tram"/>
    <type id="highway.unsurfaced"     numLanes="1" speed="8.33"  priority="1"  oneway="false" disallow="rail rail_urban rail_electric tram"/>

	<type id="highway.cycleway"       numLanes="1" speed="5.56"  priority="1"  oneway="false" bikeLaneWidth="1" allow="bicycle"/>
	<type id="cycleway.lane"          bikeLaneWidth="1" numLanes="1" speed="5.56"  priority="1"  oneway="false" allow="bicycle"/>
    <type id="cycleway.opposite_lane" bikeLaneWidth="1" numLanes="1" speed="5.56"  priority="1"  oneway="false" allow="bicycle"/>
    <type id="cycleway.track"         bikeLaneWidth="1.5" numLanes="1" speed="5.56"  priority="1"  oneway="false" allow="bicycle"/>
    <type id="cycleway.opposite_track" bikeLaneWidth="1.5" numLanes="1" speed="5.56"  priority="1"  oneway="false" allow="bicycle"/>


    <type id="railway.rail"           numLanes="1" speed="83.33" priority="15" oneway="false"  allow="bus"/>
    <type id="railway.tram"           numLanes="1" speed="13.89" priority="15" oneway="false"  allow="bus"/>
    <type id="railway.light_rail"     numLanes="1" speed="27.78" priority="15" oneway="false"  allow="bus"/>
    <type id="railway.subway"         numLanes="1" speed="27.78" priority="15" oneway="false"  allow="bus"/>
    <type id="railway.preserved"      numLanes="1" speed="27.78" priority="15" oneway="false"  allow="bus"/>

</types>
